*Heading
** Job name: nat_freq Model name: Model-1
** Generated by: Abaqus/CAE 2020
*Preprint, echo=NO, model=NO, history=NO, contact=NO
**
** PARTS
**
*Part, name=CB
*Node
      1,         -2.5,           0.
      2,          -2.,           0.
      3,         -1.5,           0.
      4,          -1.,           0.
      5,         -0.5,           0.
      6,           0.,           0.
      7,          0.5,           0.
      8,           1.,           0.
      9,          1.5,           0.
     10,           2.,           0.
     11,          2.5,           0.
     12,           3.,           0.
     13,          3.5,           0.
     14,           4.,           0.
     15,          4.5,           0.
     16,           5.,           0.
     17,          5.5,           0.
     18,           6.,           0.
     19,          6.5,           0.
     20,           7.,           0.
** ... 81 like lines cut
*Element, type=B21
  1,   1,   2
  2,   2,   3
  3,   3,   4
  4,   4,   5
  5,   5,   6
  6,   6,   7
  7,   7,   8
  8,   8,   9
  9,   9,  10
 10,  10,  11
 11,  11,  12
 12,  12,  13
 13,  13,  14
 14,  14,  15
 15,  15,  16
 16,  16,  17
 17,  17,  18
 18,  18,  19
 19,  19,  20
 20,  20,  21
** ... 80 like lines cut
*Nset, nset=_PickedSet2, internal, generate
   1,  101,    1
*Elset, elset=_PickedSet2, internal, generate
   1,  100,    1
** Section: Section-1  Profile: Profile-Circular
*Beam Section, elset=_PickedSet2, material=Material-1, temperature=GRADIENTS, section=CIRC
0.5
0.,0.,-1.
*End Part
**  
**
** ASSEMBLY
**
*Assembly, name=Assembly
**  
*Instance, name=CB-1, part=CB
*End Instance
**  
*Nset, nset=_PickedSet4, internal, instance=CB-1
 1,
*End Assembly
** 
** MATERIALS
** 
*Material, name=Material-1
*Density
 1.2e-06,
*Elastic
70000., 0.3
** ----------------------------------------------------------------
** 
** STEP: Step-1
** 
*Step, name=Step-1, nlgeom=NO, perturbation
*Frequency, eigensolver=Lanczos, sim, acoustic coupling=on, normalization=mass
10, , , , , 
** 
** BOUNDARY CONDITIONS
** 
** Name: Fixed Type: Symmetry/Antisymmetry/Encastre
*Boundary
_PickedSet4, ENCASTRE
** 
** OUTPUT REQUESTS
** 
*Restart, write, frequency=0
** 
** FIELD OUTPUT: F-Output-1
** 
*Output, field, variable=PRESELECT
*End Step
